
data_findsym-output
_audit_creation_method FINDSYM
 
_cell_length_a    5.7473001480
_cell_length_b    7.6929001808
_cell_length_c    5.5366997719
_cell_angle_alpha 90.0000000000
_cell_angle_beta  90.0000000000
_cell_angle_gamma 90.0000000000
 
_symmetry_space_group_name_H-M "P 21/n 21/m 21/a"
_symmetry_Int_Tables_number 62
_space_group.reference_setting '062:-P 2ac 2n'
_space_group.transform_Pp_abc a,b,c;0,0,0
 
loop_
_space_group_symop_id
_space_group_symop_operation_xyz
1 x,y,z
2 x+1/2,-y+1/2,-z+1/2
3 -x,y+1/2,-z
4 -x+1/2,-y,z+1/2
5 -x,-y,-z
6 -x+1/2,y+1/2,z+1/2
7 x,-y+1/2,z
8 x+1/2,y,-z+1/2
 
loop_
_atom_site_label
_atom_site_type_symbol
_atom_site_symmetry_multiplicity
_atom_site_Wyckoff_label
_atom_site_fract_x
_atom_site_fract_y
_atom_site_fract_z
_atom_site_occupancy
La1 La 4 c 0.05444 0.25000 0.50034 1.00000 
Mn1 Mn 4 a 0.00000 0.00000 0.00000 1.00000 
O1 O 8 d 0.20101 -0.06375 0.75494 1.00000 
O2 O 4 c 0.01303 0.25000 -0.07450 1.00000 

